23
Energy Minimised Cartesian Coordinates
H 9.70824575733 12.9653948741 8.9294416824
H 8.98566533521 10.1306719461 11.8446665945
H 10.8801082317 12.3656278337 11.6955116502
H 10.8957720714 10.9348575866 8.70960939162
H 11.4875895323 9.79352566167 11.3770345944
H 9.41432348415 9.83186975376 8.85884005294
H 9.32545443044 7.67737036073 9.25831329103
H 11.575275361 8.27727404728 10.9776153154
H 10.1798418504 8.79111488242 11.7826168495
H 8.41400658597 9.47950750912 9.85140957781
H 8.28952273541 8.74966330174 11.0385905615
H 10.9489012641 10.4935246906 10.7119283826
H 11.2289395778 8.15047772383 9.43726958445
H 11.2496601246 9.42412586126 8.52228134391
C 9.6848574285 12.8336212718 10.0597166385
C 9.11702406989 10.560348471 10.7962665255
C 9.82408728848 12.0079309722 11.3525764703
C 10.8611529729 10.6614998772 9.77645079387
C 11.7823336511 9.65462948471 10.3419295179
C 9.44520592452 8.83313154457 9.42137289482
C 10.5023881427 8.75900852081 10.697146953
C 9.37987837662 9.21058651046 10.4976814809
C 10.8593798419 9.37123962953 9.66571526609
