23
Energy Minimised Cartesian Coordinates
H 11.18567535 9.70306580723 7.37823590589
H 9.24383517131 9.27975174467 8.72179731828
H 11.0583234197 8.13802320131 9.72386790152
H 12.4208249687 10.1452017033 9.84230787053
H 10.5583749805 11.6899388174 9.185504387
H 10.9263245524 9.62006679607 12.0758611113
H 8.40963638619 10.5339741654 11.728227368
H 9.15730981228 7.76660324096 10.8552744252
H 10.3865849691 9.60473894363 9.74628103476
H 8.14492524652 11.4401076713 8.81197311336
H 8.0381594144 9.41186289007 11.2817245195
H 9.16384344064 10.9277490075 12.0766948803
C 10.509520504 9.28648305894 8.79916415811
C 10.9802624719 10.6184309842 9.85819123547
C 9.27120625711 8.94604048334 10.7515809121
C 10.3594419796 9.85319570492 10.9881395879
C 9.92952561547 11.3345708772 11.0360246924
C 8.0516070253 9.84964599519 8.83648813018
C 9.53598641852 10.182877654 9.76614130271
C 7.99743096336 9.87548121462 10.1400153742
C 7.55479065218 9.06280014521 9.62452816943
C 8.56038374949 9.23527241462 13.6023687907
C 11.0458867437 12.2267521684 11.6748197298
