23
Energy Minimised Cartesian Coordinates
H 10.2512578444 9.64393574371 10.726354075
H 9.35693444698 10.3875074293 10.1949731626
H 9.39419832521 9.92183401778 10.5941287016
H 9.26456436084 10.2252985304 10.0329885187
H 9.41906748319 10.791799761 10.4721968977
H 10.5140306434 10.4463424517 9.74446923398
H 10.2640023094 9.11503897835 9.79829560499
H 10.1073596083 9.44495355704 10.2542719513
H 10.0782376167 10.5958685034 9.65478683255
H 9.83861033 10.2694325066 10.5059350132
H 9.86545428183 9.78791840928 9.2635414572
H 10.4894662242 10.4622302744 10.3765743454
C 10.3864076749 9.39944266464 9.48966490029
C 11.6975434985 9.83575618459 9.95531720584
C 4.90094335781 10.1630772189 10.5241894338
C 8.33598157325 9.38583965137 10.3105553635
C 9.97568101042 10.109858344 9.69652489201
C 8.35989324957 8.04334656202 10.2265716346
C 13.2950491949 9.47373769818 10.2653614313
C 10.0515515328 12.7361322741 10.3578488875
C 10.3759490532 10.3688942303 10.4631747147
C 10.6691561843 9.98446190983 9.41950799346
C 10.8339436276 9.44238271026 10.3887746374
