16
Energy Minimised Cartesian Coordinates
H 6.70521481967 8.82891825642 11.4988822355
H 10.1045625866 8.42593300385 12.5007440848
H 9.06426734078 8.20824242955 9.70742703579
H 10.3193788979 10.2668218153 9.78823735378
H 11.3340343801 9.50842479038 9.80719285276
H 10.7479121476 11.6715270122 12.2189108933
H 11.8256852794 11.6770879831 11.7541439589
H 12.5840407378 9.25910220603 12.912649252
H 12.9361594754 9.05570948182 11.7280139881
H 11.4530604058 9.07363564391 13.2145464957
C 7.82373278784 8.61703895989 11.6324093699
C 9.93807095277 9.40698048232 11.9552920925
C 9.17660128063 8.43457881546 10.908561191
C 10.8811070959 9.7794557897 10.7145661259
C 11.1969116808 10.807529295 11.803590649
C 11.8274176188 9.32197135766 12.0686084701
