23
Energy Minimised Cartesian Coordinates
H 13.0649198319 10.5837967955 11.0857878837
H 11.4751664161 9.42646556894 9.55323988026
H 13.3642134193 9.72199143025 8.31175689551
H 10.9981661555 12.0186312919 8.21692623459
H 12.3269880068 13.0003535077 10.216950537
H 13.3172443316 12.2946168697 10.1855135547
H 11.7042591395 9.76268168971 10.5841906146
H 10.076673601 10.6756493694 9.27357033552
H 7.95601264273 9.57828622532 13.2760715102
H 9.21051085664 11.4189655292 11.1550093189
H 11.1631848736 9.55618134967 12.5019671127
H 9.8268110752 12.1538595357 13.7653427947
C 12.6280869983 10.2301174152 9.50020243945
C 11.9017964639 11.8010516933 8.91875040158
C 11.4394384316 10.7346580128 9.89585140477
C 13.1563872772 11.527024355 9.15545467405
C 9.67656131305 10.9797994602 14.1501853533
C 9.10513957767 10.2489880102 11.3361257344
C 9.00258232331 9.94563371454 13.1150277366
C 10.2234970182 10.2961347669 12.2848902483
C 9.24391960115 8.93697855623 10.8680053374
C 11.1747259474 11.8159768265 11.6295793597
C 10.1913222337 12.517796615 10.491057609
