23
Energy Minimised Cartesian Coordinates
H 10.9885662403 12.0115448917 12.9379985367
H 10.1308862203 11.2905384428 10.5684033656
H 12.7276045624 12.3075870663 10.3751505392
H 7.72304217683 9.07540644215 11.3967144157
H 11.1026500076 9.54811889018 11.3917231927
H 10.9030680254 9.34759007022 8.47055858878
H 12.0174727513 9.16394940389 9.36672503758
H 9.48625063608 7.33450408778 9.95055613272
H 10.3533609718 7.97487180666 11.4176044679
H 8.55077288734 10.7568669923 10.9312014374
H 8.88988451822 9.87305522209 8.83517015342
H 9.35914804143 12.9510868054 9.14167848664
H 8.17545155441 12.0100986581 8.44827128638
H 10.3486372818 11.7287963697 8.55154241894
C 12.1713334665 11.9461000613 12.8787570677
C 11.2147600538 10.9809107264 10.3345381442
C 12.2665725009 11.7947918706 11.2785260088
C 8.69453477527 8.77490545601 11.2436214281
C 10.0336093798 10.1489218562 11.089277937
C 10.9895080063 9.47485889237 9.60204521267
C 10.0945275052 8.23871188166 10.4313847381
C 8.95458241226 10.3615532987 9.84642985096
C 9.22111553062 11.7301041313 8.93991359492
