23
Energy Minimised Cartesian Coordinates
H 9.14277291533 12.5227997229 13.6530692154
H 10.6056543441 11.3767420108 11.6572978548
H 7.70457358479 12.1223596917 10.9946376417
H 8.92251671369 7.35384987541 11.6230040232
H 6.76850245934 9.08259981637 10.4926189901
H 12.1076284219 10.4847526212 9.31009722111
H 10.9562663646 9.95007848952 8.76852914698
H 11.7296787207 8.39937647462 11.216610551
H 10.8756461898 9.53414342603 11.8441464628
H 9.02230301054 10.5346691868 9.31960446762
H 9.51948463267 8.35331723842 9.2595339791
H 10.1779991444 13.2714261965 10.1053766798
H 11.4959109883 12.3225783883 9.82030960494
H 10.5097770349 12.7692342095 8.56753741858
C 9.08702852306 12.4402323676 12.5499896829
C 10.1127688 11.1499479465 10.6818437219
C 8.8296381631 12.0391180618 11.0432187519
C 9.12166234099 8.41470676475 11.2364060983
C 7.9529537689 9.14523490924 10.3682964682
C 11.0780548037 10.0981938911 9.86892292075
C 10.7333212942 8.89765894563 10.9370452401
C 9.31108171502 9.51155653913 9.5584807514
C 10.29247289 12.1798472154 9.52909438956
