23
Energy Minimised Cartesian Coordinates
H 9.97977193158 13.3888753261 8.82032920723
H 8.91596473653 10.6596226965 11.7971980157
H 10.7755589546 12.8018751802 11.6372761461
H 12.2360483239 11.1094612508 8.9128456652
H 11.7961315593 10.3022575965 11.7648001047
H 9.49360067399 9.58910636853 8.94089726168
H 8.95198492002 7.95416524553 9.92661468176
H 11.6820627966 7.96085815834 10.8799563985
H 10.8855786962 9.16190359324 11.8015256056
H 8.68108521055 9.52838142295 10.5672332061
H 9.08262497758 9.09335885243 11.7576749752
H 10.8685598616 10.7091686321 9.53123983766
H 11.2363552758 8.26232736282 9.24126667362
H 11.0624972541 9.57460185493 8.31536055371
C 9.91023352576 13.3082728911 10.0350509122
C 9.217766171 10.9350987698 10.6748052456
C 9.77574487649 12.3404707081 11.2292242295
C 12.1903532259 10.8097096318 9.95389039845
C 11.7139628503 9.74358929352 10.728615076
C 9.4496271877 8.97577748801 9.82172198733
C 10.9657510845 8.86745315572 10.6866557129
C 9.82151603322 9.51906450064 10.8568634551
C 10.9814821067 9.45238494039 9.44647106689
