23
Energy Minimised Cartesian Coordinates
H 12.1377875112 11.2693451072 12.1131827669
H 10.5071386975 7.68383485458 10.5982937024
H 12.0459185996 10.1040131683 9.37938308056
H 9.40171964195 10.7315542958 8.60165873182
H 11.3424312714 8.34062307536 8.45050235448
H 10.0176201856 10.0135585018 12.2547476128
H 8.77762394506 9.89508836488 12.066111599
H 9.04588657639 12.2837728494 10.4675648472
H 10.1983099227 12.5639896535 10.9625318182
H 8.47880528317 8.50930076917 8.38021557187
H 8.90658580834 8.35173938077 10.2094933847
H 7.77484220155 11.1487445929 8.96928923579
H 6.93617035895 9.83075803509 10.3403224798
H 7.71463458452 11.3215962558 10.2303907429
C 12.0909602982 10.1193650465 11.8909503529
C 10.4628671528 8.85897341958 10.6770263692
C 11.617765676 9.90445201473 10.3857712092
C 10.4957276029 10.8554994752 8.82044238545
C 10.4633952246 9.19145076977 8.46128571407
C 9.53492635295 10.1250076347 11.2034826998
C 9.90435212439 11.5804527561 10.3791096786
C 8.99710411015 9.04674710818 9.2735480162
C 7.9323319102 10.2565933913 9.79449381156
